/*--------------------------------*- C++ -*----------------------------------*\
  =========                 |
  \\      /  F ield         | OpenFOAM: The Open Source CFD Toolbox
   \\    /   O peration     | Website:  https://openfoam.org
    \\  /    A nd           | Version:  6
     \\/     M anipulation  |
\*---------------------------------------------------------------------------*/
FoamFile
{
    version     2.0;
    format      ascii;
    class       dictionary;
    location    "system";
    object      GEIM-VTsolverDict;
}
// * * * * * * * * * * * * * * * * * * * * * * * * * * * * * * * * * * * * * //
Offline_parameters
{
	error      0.001;            
	MaxSensorsNumber 20;         
	SensorsVariance 0.0001;      

	foldersList ("Folder_1"	"Folder_1") ;         
	SensorsPositions ( (0.1 0.5 0.3) (0.6 0.8 0.9) (0.25 0.41 0.9) );           
} 



    
   


// ************************************************************************* //
